OPT_V10/Two_days_MYC3/powerflow_results_t41.txt
Pandapower Network Debug Info
==================================================

BUS:
       vm_pu  va_degree      p_mw    q_mvar
0   0.993277   0.118621  0.000811  0.001108
1   0.989093   0.198088  0.001269  0.001685
2   0.985061   0.283588  0.001950  0.003128
3   0.989629   0.180248  0.002594  0.003606
4   0.999890   0.001383  0.008110  0.011793
5   0.999877   0.001487  0.010560  0.010751
6   0.999868   0.001564  0.009959  0.010505
7   0.999932   0.000908  0.000000  0.000000
8   0.999932   0.000914  0.000000  0.000000
9   1.000000   0.000000 -0.035390 -0.047667
10  1.000000   0.000007  0.000000  0.000000
--------------------------------------------------

LINE:
   p_from_mw  q_from_mvar   p_to_mw  q_to_mvar         pl_mw       ql_mvar  i_from_ka   i_to_ka      i_ka  vm_from_pu  va_from_degree  vm_to_pu  va_to_degree  loading_percent
0   0.035380     0.043667 -0.035377  -0.043665  3.089499e-06  2.408933e-06   0.002163  0.002163  0.002163    1.000000        0.000007  0.999932      0.000908         0.940514
1   0.028631     0.033051 -0.028629  -0.033050  1.478782e-06  1.153031e-06   0.001683  0.001683  0.001683    0.999932        0.000908  0.999890      0.001383         0.731818
2   0.006736     0.009614 -0.006671  -0.009564  6.446356e-05  5.026330e-05   0.016945  0.016945  0.016945    0.999932        0.000914  0.993277      0.118621         7.367420
3  -0.020519    -0.021257  0.020519   0.021257  3.019364e-07  2.354248e-07   0.001137  0.001137  0.001137    0.999877        0.001487  0.999890      0.001383         0.494483
4  -0.009959    -0.010505  0.009959   0.010505  1.025097e-07  7.992847e-08   0.000557  0.000557  0.000557    0.999868        0.001564  0.999877      0.001487         0.242281
5  -0.003232    -0.004823  0.003252   0.004839  2.038598e-05  1.589528e-05   0.008473  0.008473  0.008473    0.989093        0.198088  0.993277      0.118621         3.683784
6  -0.002594    -0.003606  0.002607   0.003617  1.345220e-05  1.048891e-05   0.006479  0.006479  0.006479    0.989629        0.180248  0.993277      0.118621         2.816843
7  -0.001950    -0.003128  0.001963   0.003138  1.266861e-05  9.877926e-06   0.005402  0.005402  0.005402    0.985061        0.283588  0.989093      0.198088         2.348493
--------------------------------------------------

TRAFO:
    p_hv_mw  q_hv_mvar   p_lv_mw  q_lv_mvar    pl_mw  ql_mvar   i_hv_ka   i_lv_ka  vm_hv_pu  va_hv_degree  vm_lv_pu  va_lv_degree  loading_percent
0  0.006746   0.010614 -0.006736  -0.009614  0.00001    0.001  0.000484  0.016945  0.999932      0.000908  0.999932      0.000914         0.125773
1  0.035390   0.047667 -0.035380  -0.043667  0.00001    0.004  0.000490  0.002163  1.000000      0.000000  1.000000      0.000007         0.148421
--------------------------------------------------
